<?xml version="1.0" encoding="UTF-8"?>
<!-- generated on 2019-05-07 01:04:50.880000 by $Id$
  options: -n C:\Users\z003kehz\Desktop\SumoTut\ps2\test2.net.xml -e 10 -o C:\Users\z003kehz\Desktop\SumoTut\ps2\test2_10.trips.xml
-->
<routes xmlns:xsi="http://www.w3.org/2001/XMLSchema-instance" xsi:noNamespaceSchemaLocation="http://sumo.dlr.de/xsd/routes_file.xsd">

  <vType accel="3.0" decel="6.0" id="CarA" length="5.0" minGap="2.5" maxSpeed="50.0" sigma="0.5" />
  <vType accel="2.0" decel="6.0" id="CarB" length="5.0" minGap="2.5" maxSpeed="45.0" sigma="0.5" />
  <vType accel="1.0" decel="5.0" id="CarC" length="5.0" minGap="2.5" maxSpeed="40.0" sigma="0.5" />
  <vType accel="1.0" decel="5.0" id="CarD" length="7.5" minGap="2.5" maxSpeed="30.0" sigma="0.5" />
  <vType accel="3.0" decel="6.0" id="CarE" length="5.0" minGap="2.5" maxSpeed="50.0" sigma="0.5" />

  <!-- Left to right -->
  <route id="route01" edges="gneE0 gneE11a gneE11b gneE14"/>
  <!-- Left to right bottom -->
  <route id="route02" edges="gneE0 gneE11a gneE11b gneE13"/>
  <route id="route03" edges="-gneE1 gneE11a gneE11b gneE14"/>
  <route id="route04" edges="-gneE1 gneE11a gneE11b gneE13"/>
  <route id="route05" edges="-gneE15 gneE13"/>
  <route id="route06" edges="-gneE15 -gneE12a -gneE12b -gneE0"/>
  <route id="route07" edges="-gneE14 -gneE12a -gneE12b -gneE0"/>
  <route id="route11" edges="gneE0 gneE11a -gneE12b -gneE0"/>

  <!-- First Round (40 cars) -->
  <vehicle depart="0" id="veh11" route="route01" type="CarA" color="1,0,0" />
  <vehicle depart="2" id="veh21" route="route02" type="CarB" color="0,1,0" />
  <vehicle depart="4" id="veh31" route="route03" type="CarC" color="0,0,1" />
  <vehicle depart="4" id="veh2010" type="CarE" color="1,1,1">
     <route edges="gneE0 gneE11a gneE11b gneE13"/>
     <stop lane="gneE11a_0" endPos="50" until="40"/>
  </vehicle>  
  
  <vehicle depart="5" id="veh12" route="route01" type="CarA" color="1,0,0" />
  <vehicle depart="6" id="veh41" route="route04" type="CarA" color="1,0,0" />
  <vehicle depart="7" id="veh22" route="route02" type="CarB" color="0,1,0" />
  <vehicle depart="8" id="veh51" route="route05" type="CarB" color="0,1,0" />
  <vehicle depart="9" id="veh32" route="route03" type="CarC"  color="0,0,1" />
  <vehicle depart="10" id="veh13" route="route01" type="CarA" color="1,0,0" />
  <vehicle depart="10" id="veh2020" type="CarE" color="1,1,1">
     <route edges="-gneE15 -gneE12a -gneE12b -gneE0"/>
     <stop lane="-gneE12b_0" endPos="50" until="65"/>
  </vehicle>  
  
  <vehicle depart="10" id="veh61" route="route06" type="CarC" color="0,0,1" />
  <vehicle depart="11" id="veh42" route="route04" type="CarA" color="1,0,0" />
  <vehicle depart="12" id="veh23" route="route02" type="CarB" color="0,1,0" />
  <vehicle depart="12" id="veh71" route="route07" type="CarA" color="1,0,0" />
  <vehicle depart="13" id="veh52" route="route05" type="CarB" color="0,1,0" />
  <vehicle depart="14" id="veh33" route="route03" type="CarC" color="0,0,1" />
  <vehicle depart="14" id="veh2030" type="CarE" color="1,1,1">
     <route edges="gneE0 gneE11a gneE11b"/>
     <stop lane="gneE11b_0" endPos="10" until="500"/>
  </vehicle>  
  
  <vehicle depart="15" id="veh14" route="route01" type="CarA" color="1,0,0" />
  <vehicle depart="15" id="veh62" route="route06" type="CarC" color="0,0,1" />
  <vehicle depart="16" id="veh43" route="route04" type="CarA" color="1,0,0" />
  <vehicle depart="17" id="veh24" route="route02" type="CarB" color="0,1,0" />
  <vehicle depart="17" id="veh72" route="route07" type="CarA"  color="1,0,0" />
  <vehicle depart="18" id="veh53" route="route05" type="CarB" color="0,1,0" />
  <vehicle depart="19" id="veh34" route="route03" type="CarC" color="0,0,1" />
  <vehicle depart="20" id="veh15" route="route01" type="CarA" color="1,0,0" />
  <vehicle depart="20" id="veh63" route="route06" type="CarC" color="0,0,1" />
  <vehicle depart="21" id="veh44" route="route04" type="CarA" color="1,0,0" />
  <vehicle depart="22" id="veh25" route="route02" type="CarB" color="0,1,0" />
  <vehicle depart="22" id="veh73" route="route07" type="CarA"  color="1,0,0" />
  <vehicle depart="23" id="veh54" route="route05" type="CarB" color="0,1,0" />
  <vehicle depart="24" id="veh35" route="route03" type="CarC" color="0,0,1" />
  <vehicle depart="25" id="veh16" route="route01" type="CarA" color="1,0,0" />
  <vehicle depart="25" id="veh64" route="route06" type="CarC" color="0,0,1" />
  <vehicle depart="26" id="veh45" route="route04" type="CarA" color="1,0,0" />
  <vehicle depart="27" id="veh26" route="route02" type="CarB" color="0,1,0" />
  <vehicle depart="27" id="veh74" route="route07" type="CarA" color="1,0,0" />
  <vehicle depart="28" id="veh55" route="route05" type="CarB" color="0,1,0" />
  <vehicle depart="29" id="veh36" route="route03" type="CarC" color="0,0,1" />
  <vehicle depart="30" id="veh65" route="route06" type="CarC" color="0,0,1" />
  <vehicle depart="31" id="veh46" route="route04" type="CarA" color="1,0,0" />
  <vehicle depart="32" id="veh75" route="route07" type="CarA"  color="1,0,0" />
  <vehicle depart="33" id="veh56" route="route04" type="CarA" color="1,1,0" />  <!--Last Car -->
  <vehicle depart="35" id="veh66" route="route06" type="CarC" color="0,0,1" />
  <vehicle depart="37" id="veh77" route="route07" type="CarA"  color="1,0,0" />

    <!-- Second Round (40 cars) -->
  <vehicle depart="40" id="veh111" route="route01" type="CarA" color="1,0,0" />
  <vehicle depart="42" id="veh121" route="route02" type="CarB" color="0,1,0" />
  <vehicle depart="44" id="veh131" route="route03" type="CarC" color="0,0,1" />
  <vehicle depart="44" id="veh2110" type="CarE" color="1,1,1">
     <route edges="gneE0 gneE11a gneE11b gneE13"/>
     <stop lane="gneE11a_0" endPos="50" until="85"/>
  </vehicle>  
  
  <vehicle depart="45" id="veh112" route="route01" type="CarA" color="1,0,0" />
  <vehicle depart="46" id="veh141" route="route04" type="CarA" color="1,0,0" />
  <vehicle depart="47" id="veh122" route="route02" type="CarB" color="0,1,0" />
  <vehicle depart="48" id="veh151" route="route05" type="CarB" color="0,1,0" />
  <vehicle depart="49" id="veh132" route="route03" type="CarC"  color="0,0,1" /> 
  <vehicle depart="50" id="veh113" route="route01" type="CarA" color="1,0,0" />
  <vehicle depart="50" id="veh161" route="route06" type="CarC" color="0,0,1" />
  <vehicle depart="50" id="veh2120" type="CarE" color="1,1,1">
     <route edges="-gneE15 -gneE12a -gneE12b -gneE0"/>
     <stop lane="-gneE12b_0" endPos="50" until="100"/>
  </vehicle>    
  
  <vehicle depart="51" id="veh142" route="route04" type="CarA" color="1,0,0" />
  <vehicle depart="52" id="veh123" route="route02" type="CarB" color="0,1,0" />
  <vehicle depart="52" id="veh171" route="route07" type="CarA" color="1,0,0" />
  <vehicle depart="53" id="veh152" route="route05" type="CarB" color="0,1,0" />
  <vehicle depart="54" id="veh133" route="route03" type="CarC" color="0,0,1" />
  <vehicle depart="55" id="veh114" route="route01" type="CarA" color="1,0,0" />
  <vehicle depart="55" id="veh162" route="route06" type="CarC" color="0,0,1" />
  <vehicle depart="56" id="veh143" route="route04" type="CarA" color="1,0,0" />
  <vehicle depart="57" id="veh124" route="route02" type="CarB" color="0,1,0" />
  <vehicle depart="57" id="veh172" route="route07" type="CarA"  color="1,0,0" />
  <vehicle depart="58" id="veh153" route="route05" type="CarB" color="0,1,0" />
  <vehicle depart="59" id="veh134" route="route03" type="CarC" color="0,0,1" />
  <vehicle depart="60" id="veh115" route="route01" type="CarA" color="1,0,0" />
  <vehicle depart="60" id="veh163" route="route06" type="CarC" color="0,0,1" />
  <vehicle depart="61" id="veh144" route="route04" type="CarA" color="1,0,0" />
  <vehicle depart="62" id="veh125" route="route02" type="CarB" color="0,1,0" />
  <vehicle depart="62" id="veh173" route="route07" type="CarA"  color="1,0,0" />
  <vehicle depart="63" id="veh154" route="route05" type="CarB" color="0,1,0" />
  <vehicle depart="64" id="veh135" route="route03" type="CarC" color="0,0,1" />
  <vehicle depart="65" id="veh116" route="route01" type="CarA" color="1,0,0" />
  <vehicle depart="65" id="veh164" route="route06" type="CarC" color="0,0,1" />
  <vehicle depart="66" id="veh145" route="route04" type="CarA" color="1,0,0" />
  <vehicle depart="67" id="veh126" route="route02" type="CarB" color="0,1,0" />
  <vehicle depart="67" id="veh174" route="route07" type="CarA" color="1,0,0" />
  <vehicle depart="68" id="veh155" route="route05" type="CarB" color="0,1,0" />
  <vehicle depart="69" id="veh136" route="route03" type="CarC" color="0,0,1" />
  <vehicle depart="70" id="veh165" route="route06" type="CarC" color="0,0,1" />
  <vehicle depart="71" id="veh146" route="route04" type="CarA" color="1,0,0" />
  <vehicle depart="72" id="veh175" route="route07" type="CarA"  color="1,0,0" />
  <vehicle depart="73" id="veh156" route="route04" type="CarA" color="1,1,0" />  <!--Last Car -->
  <vehicle depart="75" id="veh166" route="route06" type="CarC" color="0,0,1" />
  <vehicle depart="77" id="veh177" route="route07" type="CarA"  color="1,0,0" />

    <!-- Third Round (40 cars) -->
  <vehicle depart="80" id="veh211" route="route01" type="CarA" color="1,0,0" />
  <vehicle depart="80" id="veh221" route="route02" type="CarB" color="0,1,0" />
  <vehicle depart="84" id="veh231" route="route03" type="CarC" color="0,0,1" />
  <vehicle depart="85" id="veh212" route="route01" type="CarA" color="1,0,0" />
  <vehicle depart="86" id="veh241" route="route04" type="CarA" color="1,0,0" />
  <vehicle depart="87" id="veh222" route="route02" type="CarB" color="0,1,0" />
  <vehicle depart="88" id="veh251" route="route05" type="CarB" color="0,1,0" />
  <vehicle depart="89" id="veh232" route="route03" type="CarC"  color="0,0,1" />
  <vehicle depart="90" id="veh213" route="route01" type="CarA" color="1,0,0" />
  <vehicle depart="90" id="veh261" route="route06" type="CarC" color="0,0,1" />
  <vehicle depart="90" id="veh2130" type="CarE" color="1,1,1">
     <route edges="gneE0 gneE11a gneE11b"/>
     <stop lane="gneE11b_0" endPos="10" until="800"/>
  </vehicle>   
  <vehicle depart="91" id="veh242" route="route04" type="CarA" color="1,0,0" />
  <vehicle depart="92" id="veh223" route="route02" type="CarB" color="0,1,0" />
  <vehicle depart="92" id="veh271" route="route07" type="CarA" color="1,0,0" />
  <vehicle depart="93" id="veh252" route="route05" type="CarB" color="0,1,0" />
  <vehicle depart="94" id="veh233" route="route03" type="CarC" color="0,0,1" />
  <vehicle depart="95" id="veh214" route="route01" type="CarA" color="1,0,0" />
  <vehicle depart="95" id="veh262" route="route06" type="CarC" color="0,0,1" />
  <vehicle depart="96" id="veh243" route="route04" type="CarA" color="1,0,0" />
  <vehicle depart="97" id="veh224" route="route02" type="CarB" color="0,1,0" />
  <vehicle depart="97" id="veh272" route="route07" type="CarA"  color="1,0,0" />
  <vehicle depart="98" id="veh253" route="route05" type="CarB" color="0,1,0" />
  <vehicle depart="99" id="veh234" route="route03" type="CarC" color="0,0,1" />
  <vehicle depart="100" id="veh215" route="route01" type="CarA" color="1,0,0" />
  <vehicle depart="100" id="veh263" route="route06" type="CarC" color="0,0,1" />
  <vehicle depart="101" id="veh244" route="route04" type="CarA" color="1,0,0" />
  <vehicle depart="102" id="veh225" route="route02" type="CarB" color="0,1,0" />
  <vehicle depart="102" id="veh273" route="route07" type="CarA"  color="1,0,0" />
  <vehicle depart="103" id="veh254" route="route05" type="CarB" color="0,1,0" />
  <vehicle depart="104" id="veh235" route="route03" type="CarC" color="0,0,1" />
  <vehicle depart="105" id="veh216" route="route01" type="CarA" color="1,0,0" />
  <vehicle depart="105" id="veh264" route="route06" type="CarC" color="0,0,1" />
  <vehicle depart="106" id="veh245" route="route04" type="CarA" color="1,0,0" />
  <vehicle depart="107" id="veh226" route="route02" type="CarB" color="0,1,0" />
  <vehicle depart="107" id="veh274" route="route07" type="CarA" color="1,0,0" />
  <vehicle depart="108" id="veh255" route="route05" type="CarB" color="0,1,0" />
  <vehicle depart="109" id="veh236" route="route03" type="CarC" color="0,0,1" />
  <vehicle depart="110" id="veh265" route="route06" type="CarC" color="0,0,1" />
  <vehicle depart="111" id="veh246" route="route04" type="CarA" color="1,0,0" />
  <vehicle depart="112" id="veh275" route="route07" type="CarA"  color="1,0,0" />
  <vehicle depart="113" id="veh256" route="route04" type="CarA" color="1,1,0" />  <!--Last Car -->
  <vehicle depart="115" id="veh266" route="route06" type="CarC" color="0,0,1" />
  <vehicle depart="117" id="veh277" route="route07" type="CarA"  color="1,0,0" />



</routes>
